LTspice 24.1.5 for Windows
Circuit: G:\Ing Electronica\NxNx\Facultad\Materias\8vo Semestre\SRA\Laboratorios\L1\Circuito 3.net
Start Time: Wed Oct 22 18:53:54 2025
solver = Normal
Maximum thread count: 12
tnom = 27
temp = 27
method = trap
Direct Newton iteration for .op point succeeded.
.step rl=1000
.step rl=2000
.step rl=5000
.step rl=10000
Total elapsed time: 0.533 seconds.

Files loaded:
G:\Ing Electronica\NxNx\Facultad\Materias\8vo Semestre\SRA\Laboratorios\L1\Circuito 3.net
G:\Ing Electronica\NxNx\Facultad\Materias\8vo Semestre\SRA\LM324.lib

