LTspice 24.1.5 for Windows
Circuit: G:\Ing Electronica\NxNx\Facultad\Materias\8vo Semestre\SRA\Laboratorios\L1\Draft1.net
Start Time: Tue Nov 18 22:05:46 2025
solver = Normal
Maximum thread count: 12
tnom = 27
temp = 27
method = trap
Direct Newton iteration failed to find .op point.  (Use ".option noopiter" to skip.)
Starting Gmin stepping
Gmin = 10
Gmin = 1.07374
vernier = 0.5
vernier = 0.25
vernier = 0.125
vernier = 0.0625
vernier = 0.03125
Gmin = 1.0412
vernier = 0.015625
vernier = 0.0078125
Gmin = 1.0132
vernier = 0.00390625
vernier = 0.00195312
Gmin = 1.00827
vernier = 0.00260417
vernier = 0.00130208
Gmin = 1.00515
vernier = 0.000651042
vernier = 0.000868055
vernier = 0.000434028
Gmin = 1.00434
vernier = 0.000578703
vernier = 0.000434027
Gmin = 1.00339
Gmin = 0
Gmin stepping failed

Starting source stepping with srcstepmethod=0
Source Step = 3.0303%
Source Step = 25.7576%
Source Step = 33.3333%
Source Step = 40.9091%
Source Step = 48.4848%
Source Step = 56.0606%
vernier = 0.375
Source Step = 64.0152%
Source Step = 75.3788%
Source Step = 86.7424%
Source Step = 98.1061%
Source stepping succeeded in finding the operating point.

Total elapsed time: 0.460 seconds.

Files loaded:
G:\Ing Electronica\NxNx\Facultad\Materias\8vo Semestre\SRA\Laboratorios\L1\Draft1.net
C:\Users\Nano\AppData\Local\LTspice\lib\sub\LTC.lib

